linhas_cargas.txt
new line.linha2 bus1=b bus2=c1 phases=3 length=0.01 units=km linecode=arranjo
new line.linha3 bus1=b bus2=c2 phases=3 length=0.01 units=km linecode=arranjo
new line.linha4 bus1=b bus2=c3 phases=3 length=0.01 units=km linecode=arranjo
new line.linha5 bus1=b bus2=c4 phases=3 length=0.01 units=km linecode=arranjo
new line.linha6 bus1=b bus2=c5 phases=3 length=0.01 units=km linecode=arranjo
new line.linha7 bus1=b bus2=c6 phases=3 length=0.01 units=km linecode=arranjo
new line.linha8 bus1=b bus2=c7 phases=3 length=0.01 units=km linecode=arranjo
new line.linha9 bus1=b bus2=c8 phases=3 length=0.01 units=km linecode=arranjo
new line.linha10 bus1=b bus2=c9 phases=3 length=0.01 units=km linecode=arranjo
new line.linha11 bus1=b bus2=c10 phases=3 length=0.01 units=km linecode=arranjo
new line.linha12 bus1=b bus2=c11 phases=3 length=0.01 units=km linecode=arranjo
new line.linha13 bus1=b bus2=c12 phases=3 length=0.01 units=km linecode=arranjo
new line.linha14 bus1=b bus2=c13 phases=3 length=0.01 units=km linecode=arranjo
new line.linha15 bus1=b bus2=c14 phases=3 length=0.01 units=km linecode=arranjo
new line.linha16 bus1=b bus2=c15 phases=3 length=0.01 units=km linecode=arranjo
new line.linha17 bus1=b bus2=c16 phases=3 length=0.01 units=km linecode=arranjo
new line.linha18 bus1=b bus2=c17 phases=3 length=0.01 units=km linecode=arranjo
new line.linha19 bus1=b bus2=c18 phases=3 length=0.01 units=km linecode=arranjo
new line.linha20 bus1=b bus2=c19 phases=3 length=0.01 units=km linecode=arranjo
new line.linha21 bus1=b bus2=c20 phases=3 length=0.01 units=km linecode=arranjo
new line.linha22 bus1=b bus2=c21 phases=3 length=0.01 units=km linecode=arranjo
new line.linha23 bus1=b bus2=c22 phases=3 length=0.01 units=km linecode=arranjo
new line.linha24 bus1=b bus2=c23 phases=3 length=0.01 units=km linecode=arranjo
new line.linha25 bus1=b bus2=c24 phases=3 length=0.01 units=km linecode=arranjo
new line.linha26 bus1=b bus2=c25 phases=3 length=0.01 units=km linecode=arranjo
new line.linha27 bus1=b bus2=c26 phases=3 length=0.01 units=km linecode=arranjo
new line.linha28 bus1=b bus2=c27 phases=3 length=0.01 units=km linecode=arranjo
new line.linha29 bus1=b bus2=c28 phases=3 length=0.01 units=km linecode=arranjo
new line.linha30 bus1=b bus2=c29 phases=3 length=0.01 units=km linecode=arranjo
new line.linha31 bus1=b bus2=c30 phases=3 length=0.01 units=km linecode=arranjo
new line.linha32 bus1=b bus2=c31 phases=3 length=0.01 units=km linecode=arranjo
new line.linha33 bus1=b bus2=c32 phases=3 length=0.01 units=km linecode=arranjo
new line.linha34 bus1=b bus2=c33 phases=3 length=0.01 units=km linecode=arranjo
new line.linha35 bus1=b bus2=c34 phases=3 length=0.01 units=km linecode=arranjo
new line.linha36 bus1=b bus2=c35 phases=3 length=0.01 units=km linecode=arranjo
new line.linha37 bus1=b bus2=c36 phases=3 length=0.01 units=km linecode=arranjo
new line.linha38 bus1=b bus2=c37 phases=3 length=0.01 units=km linecode=arranjo
new line.linha39 bus1=b bus2=c38 phases=3 length=0.01 units=km linecode=arranjo
new line.linha40 bus1=b bus2=c39 phases=3 length=0.01 units=km linecode=arranjo
new line.linha41 bus1=b bus2=c40 phases=3 length=0.01 units=km linecode=arranjo
new line.linha42 bus1=b bus2=c41 phases=3 length=0.01 units=km linecode=arranjo
new line.linha43 bus1=b bus2=c42 phases=3 length=0.01 units=km linecode=arranjo
new line.linha44 bus1=b bus2=c43 phases=3 length=0.01 units=km linecode=arranjo
new line.linha45 bus1=b bus2=c44 phases=3 length=0.01 units=km linecode=arranjo
new line.linha46 bus1=b bus2=c45 phases=3 length=0.01 units=km linecode=arranjo
new line.linha47 bus1=b bus2=c46 phases=3 length=0.01 units=km linecode=arranjo
new line.linha48 bus1=b bus2=c47 phases=3 length=0.01 units=km linecode=arranjo
new line.linha49 bus1=b bus2=c48 phases=3 length=0.01 units=km linecode=arranjo
new line.linha50 bus1=b bus2=c49 phases=3 length=0.01 units=km linecode=arranjo
new line.linha51 bus1=b bus2=c50 phases=3 length=0.01 units=km linecode=arranjo
new line.linha52 bus1=b bus2=c51 phases=3 length=0.01 units=km linecode=arranjo
new line.linha53 bus1=b bus2=c52 phases=3 length=0.01 units=km linecode=arranjo
new line.linha54 bus1=b bus2=c53 phases=3 length=0.01 units=km linecode=arranjo
new line.linha55 bus1=b bus2=c54 phases=3 length=0.01 units=km linecode=arranjo
new line.linha56 bus1=b bus2=c55 phases=3 length=0.01 units=km linecode=arranjo
new line.linha57 bus1=b bus2=c56 phases=3 length=0.01 units=km linecode=arranjo
new line.linha58 bus1=b bus2=c57 phases=3 length=0.01 units=km linecode=arranjo
new line.linha59 bus1=b bus2=c58 phases=3 length=0.01 units=km linecode=arranjo
new line.linha60 bus1=b bus2=c59 phases=3 length=0.01 units=km linecode=arranjo
new line.linha61 bus1=b bus2=c60 phases=3 length=0.01 units=km linecode=arranjo
new line.linha62 bus1=b bus2=c61 phases=3 length=0.01 units=km linecode=arranjo
new line.linha63 bus1=b bus2=c62 phases=3 length=0.01 units=km linecode=arranjo
new line.linha64 bus1=b bus2=c63 phases=3 length=0.01 units=km linecode=arranjo
new line.linha65 bus1=b bus2=c64 phases=3 length=0.01 units=km linecode=arranjo
new line.linha66 bus1=b bus2=c65 phases=3 length=0.01 units=km linecode=arranjo
new line.linha67 bus1=b bus2=c66 phases=3 length=0.01 units=km linecode=arranjo
new line.linha68 bus1=b bus2=c67 phases=3 length=0.01 units=km linecode=arranjo
new line.linha69 bus1=b bus2=c68 phases=3 length=0.01 units=km linecode=arranjo
new line.linha70 bus1=b bus2=c69 phases=3 length=0.01 units=km linecode=arranjo
new line.linha71 bus1=b bus2=c70 phases=3 length=0.01 units=km linecode=arranjo
new line.linha72 bus1=b bus2=c71 phases=3 length=0.01 units=km linecode=arranjo
new line.linha73 bus1=b bus2=c72 phases=3 length=0.01 units=km linecode=arranjo
new line.linha74 bus1=b bus2=c73 phases=3 length=0.01 units=km linecode=arranjo
new line.linha75 bus1=b bus2=c74 phases=3 length=0.01 units=km linecode=arranjo
new line.linha76 bus1=b bus2=c75 phases=3 length=0.01 units=km linecode=arranjo
new line.linha77 bus1=b bus2=c76 phases=3 length=0.01 units=km linecode=arranjo
new line.linha78 bus1=b bus2=c77 phases=3 length=0.01 units=km linecode=arranjo
new line.linha79 bus1=b bus2=c78 phases=3 length=0.01 units=km linecode=arranjo
new line.linha80 bus1=b bus2=c79 phases=3 length=0.01 units=km linecode=arranjo
new line.linha81 bus1=b bus2=c80 phases=3 length=0.01 units=km linecode=arranjo
new line.linha82 bus1=b bus2=c81 phases=3 length=0.01 units=km linecode=arranjo
new line.linha83 bus1=b bus2=c82 phases=3 length=0.01 units=km linecode=arranjo
new line.linha84 bus1=b bus2=c83 phases=3 length=0.01 units=km linecode=arranjo
new line.linha85 bus1=b bus2=c84 phases=3 length=0.01 units=km linecode=arranjo
new line.linha86 bus1=b bus2=c85 phases=3 length=0.01 units=km linecode=arranjo
new line.linha87 bus1=b bus2=c86 phases=3 length=0.01 units=km linecode=arranjo
new line.linha88 bus1=b bus2=c87 phases=3 length=0.01 units=km linecode=arranjo
new line.linha89 bus1=b bus2=c88 phases=3 length=0.01 units=km linecode=arranjo
new line.linha90 bus1=b bus2=c89 phases=3 length=0.01 units=km linecode=arranjo
new line.linha91 bus1=b bus2=c90 phases=3 length=0.01 units=km linecode=arranjo
new line.linha92 bus1=b bus2=c91 phases=3 length=0.01 units=km linecode=arranjo
new line.linha93 bus1=b bus2=c92 phases=3 length=0.01 units=km linecode=arranjo
new line.linha94 bus1=b bus2=c93 phases=3 length=0.01 units=km linecode=arranjo
new line.linha95 bus1=b bus2=c94 phases=3 length=0.01 units=km linecode=arranjo
new line.linha96 bus1=b bus2=c95 phases=3 length=0.01 units=km linecode=arranjo
new line.linha97 bus1=b bus2=c96 phases=3 length=0.01 units=km linecode=arranjo
new line.linha98 bus1=b bus2=c97 phases=3 length=0.01 units=km linecode=arranjo
new line.linha99 bus1=b bus2=c98 phases=3 length=0.01 units=km linecode=arranjo
new line.linha100 bus1=b bus2=c99 phases=3 length=0.01 units=km linecode=arranjo
new line.linha101 bus1=b bus2=c100 phases=3 length=0.01 units=km linecode=arranjo
new line.linha102 bus1=b bus2=c101 phases=3 length=0.01 units=km linecode=arranjo
new line.linha103 bus1=b bus2=c102 phases=3 length=0.01 units=km linecode=arranjo
new line.linha104 bus1=b bus2=c103 phases=3 length=0.01 units=km linecode=arranjo
new line.linha105 bus1=b bus2=c104 phases=3 length=0.01 units=km linecode=arranjo
new line.linha106 bus1=b bus2=c105 phases=3 length=0.01 units=km linecode=arranjo
new line.linha107 bus1=b bus2=c106 phases=3 length=0.01 units=km linecode=arranjo
new line.linha108 bus1=b bus2=c107 phases=3 length=0.01 units=km linecode=arranjo
new line.linha109 bus1=b bus2=c108 phases=3 length=0.01 units=km linecode=arranjo
new line.linha110 bus1=b bus2=c109 phases=3 length=0.01 units=km linecode=arranjo
new line.linha111 bus1=b bus2=c110 phases=3 length=0.01 units=km linecode=arranjo
new line.linha112 bus1=b bus2=c111 phases=3 length=0.01 units=km linecode=arranjo
new line.linha113 bus1=b bus2=c112 phases=3 length=0.01 units=km linecode=arranjo
new line.linha114 bus1=b bus2=c113 phases=3 length=0.01 units=km linecode=arranjo
new line.linha115 bus1=b bus2=c114 phases=3 length=0.01 units=km linecode=arranjo
new line.linha116 bus1=b bus2=c115 phases=3 length=0.01 units=km linecode=arranjo
new line.linha117 bus1=b bus2=c116 phases=3 length=0.01 units=km linecode=arranjo
new line.linha118 bus1=b bus2=c117 phases=3 length=0.01 units=km linecode=arranjo
new line.linha119 bus1=b bus2=c118 phases=3 length=0.01 units=km linecode=arranjo
new line.linha120 bus1=b bus2=c119 phases=3 length=0.01 units=km linecode=arranjo
new line.linha121 bus1=b bus2=c120 phases=3 length=0.01 units=km linecode=arranjo
new line.linha122 bus1=b bus2=c121 phases=3 length=0.01 units=km linecode=arranjo
new line.linha123 bus1=b bus2=c122 phases=3 length=0.01 units=km linecode=arranjo
new line.linha124 bus1=b bus2=c123 phases=3 length=0.01 units=km linecode=arranjo
new line.linha125 bus1=b bus2=c124 phases=3 length=0.01 units=km linecode=arranjo
new line.linha126 bus1=b bus2=c125 phases=3 length=0.01 units=km linecode=arranjo
new line.linha127 bus1=b bus2=c126 phases=3 length=0.01 units=km linecode=arranjo
new line.linha128 bus1=b bus2=c127 phases=3 length=0.01 units=km linecode=arranjo
new line.linha129 bus1=b bus2=c128 phases=3 length=0.01 units=km linecode=arranjo
new line.linha130 bus1=b bus2=c129 phases=3 length=0.01 units=km linecode=arranjo
new line.linha131 bus1=b bus2=c130 phases=3 length=0.01 units=km linecode=arranjo
new line.linha132 bus1=b bus2=c131 phases=3 length=0.01 units=km linecode=arranjo
new line.linha133 bus1=b bus2=c132 phases=3 length=0.01 units=km linecode=arranjo
new line.linha134 bus1=b bus2=c133 phases=3 length=0.01 units=km linecode=arranjo
new line.linha135 bus1=b bus2=c134 phases=3 length=0.01 units=km linecode=arranjo
new line.linha136 bus1=b bus2=c135 phases=3 length=0.01 units=km linecode=arranjo
new line.linha137 bus1=b bus2=c136 phases=3 length=0.01 units=km linecode=arranjo
new line.linha138 bus1=b bus2=c137 phases=3 length=0.01 units=km linecode=arranjo
new line.linha139 bus1=b bus2=c138 phases=3 length=0.01 units=km linecode=arranjo
new line.linha140 bus1=b bus2=c139 phases=3 length=0.01 units=km linecode=arranjo
new line.linha141 bus1=b bus2=c140 phases=3 length=0.01 units=km linecode=arranjo
new line.linha142 bus1=b bus2=c141 phases=3 length=0.01 units=km linecode=arranjo
new line.linha143 bus1=b bus2=c142 phases=3 length=0.01 units=km linecode=arranjo
new line.linha144 bus1=b bus2=c143 phases=3 length=0.01 units=km linecode=arranjo
new line.linha145 bus1=b bus2=c144 phases=3 length=0.01 units=km linecode=arranjo
new line.linha146 bus1=b bus2=c145 phases=3 length=0.01 units=km linecode=arranjo
new line.linha147 bus1=b bus2=c146 phases=3 length=0.01 units=km linecode=arranjo
new line.linha148 bus1=b bus2=c147 phases=3 length=0.01 units=km linecode=arranjo
new line.linha149 bus1=b bus2=c148 phases=3 length=0.01 units=km linecode=arranjo
new line.linha150 bus1=b bus2=c149 phases=3 length=0.01 units=km linecode=arranjo
new line.linha151 bus1=b bus2=c150 phases=3 length=0.01 units=km linecode=arranjo
new line.linha152 bus1=b bus2=c151 phases=3 length=0.01 units=km linecode=arranjo
new line.linha153 bus1=b bus2=c152 phases=3 length=0.01 units=km linecode=arranjo
new line.linha154 bus1=b bus2=c153 phases=3 length=0.01 units=km linecode=arranjo
new line.linha155 bus1=b bus2=c154 phases=3 length=0.01 units=km linecode=arranjo
new line.linha156 bus1=b bus2=c155 phases=3 length=0.01 units=km linecode=arranjo
new line.linha157 bus1=b bus2=c156 phases=3 length=0.01 units=km linecode=arranjo
new line.linha158 bus1=b bus2=c157 phases=3 length=0.01 units=km linecode=arranjo
new line.linha159 bus1=b bus2=c158 phases=3 length=0.01 units=km linecode=arranjo
new line.linha160 bus1=b bus2=c159 phases=3 length=0.01 units=km linecode=arranjo
new line.linha161 bus1=b bus2=c160 phases=3 length=0.01 units=km linecode=arranjo
new line.linha162 bus1=b bus2=c161 phases=3 length=0.01 units=km linecode=arranjo
new line.linha163 bus1=b bus2=c162 phases=3 length=0.01 units=km linecode=arranjo
new line.linha164 bus1=b bus2=c163 phases=3 length=0.01 units=km linecode=arranjo
new line.linha165 bus1=b bus2=c164 phases=3 length=0.01 units=km linecode=arranjo
new line.linha166 bus1=b bus2=c165 phases=3 length=0.01 units=km linecode=arranjo
new line.linha167 bus1=b bus2=c166 phases=3 length=0.01 units=km linecode=arranjo
new line.linha168 bus1=b bus2=c167 phases=3 length=0.01 units=km linecode=arranjo
new line.linha169 bus1=b bus2=c168 phases=3 length=0.01 units=km linecode=arranjo
new line.linha170 bus1=b bus2=c169 phases=3 length=0.01 units=km linecode=arranjo
new line.linha171 bus1=b bus2=c170 phases=3 length=0.01 units=km linecode=arranjo
new line.linha172 bus1=b bus2=c171 phases=3 length=0.01 units=km linecode=arranjo
new line.linha173 bus1=b bus2=c172 phases=3 length=0.01 units=km linecode=arranjo
new line.linha174 bus1=b bus2=c173 phases=3 length=0.01 units=km linecode=arranjo
new line.linha175 bus1=b bus2=c174 phases=3 length=0.01 units=km linecode=arranjo
new line.linha176 bus1=b bus2=c175 phases=3 length=0.01 units=km linecode=arranjo
new line.linha177 bus1=b bus2=c176 phases=3 length=0.01 units=km linecode=arranjo
new line.linha178 bus1=b bus2=c177 phases=3 length=0.01 units=km linecode=arranjo
new line.linha179 bus1=b bus2=c178 phases=3 length=0.01 units=km linecode=arranjo
new line.linha180 bus1=b bus2=c179 phases=3 length=0.01 units=km linecode=arranjo
new line.linha181 bus1=b bus2=c180 phases=3 length=0.01 units=km linecode=arranjo
new line.linha182 bus1=b bus2=c181 phases=3 length=0.01 units=km linecode=arranjo
new line.linha183 bus1=b bus2=c182 phases=3 length=0.01 units=km linecode=arranjo
new line.linha184 bus1=b bus2=c183 phases=3 length=0.01 units=km linecode=arranjo
new line.linha185 bus1=b bus2=c184 phases=3 length=0.01 units=km linecode=arranjo
new line.linha186 bus1=b bus2=c185 phases=3 length=0.01 units=km linecode=arranjo
new line.linha187 bus1=b bus2=c186 phases=3 length=0.01 units=km linecode=arranjo
new line.linha188 bus1=b bus2=c187 phases=3 length=0.01 units=km linecode=arranjo
new line.linha189 bus1=b bus2=c188 phases=3 length=0.01 units=km linecode=arranjo
new line.linha190 bus1=b bus2=c189 phases=3 length=0.01 units=km linecode=arranjo
new line.linha191 bus1=b bus2=c190 phases=3 length=0.01 units=km linecode=arranjo
new line.linha192 bus1=b bus2=c191 phases=3 length=0.01 units=km linecode=arranjo
new line.linha193 bus1=b bus2=c192 phases=3 length=0.01 units=km linecode=arranjo
new line.linha194 bus1=b bus2=c193 phases=3 length=0.01 units=km linecode=arranjo
new line.linha195 bus1=b bus2=c194 phases=3 length=0.01 units=km linecode=arranjo
new line.linha196 bus1=b bus2=c195 phases=3 length=0.01 units=km linecode=arranjo
new line.linha197 bus1=b bus2=c196 phases=3 length=0.01 units=km linecode=arranjo
new line.linha198 bus1=b bus2=c197 phases=3 length=0.01 units=km linecode=arranjo
new line.linha199 bus1=b bus2=c198 phases=3 length=0.01 units=km linecode=arranjo
new line.linha200 bus1=b bus2=c199 phases=3 length=0.01 units=km linecode=arranjo
